51U
  PyMOL2.3          3D                             0

 55 57  0  0  0  0  0  0  0  0999 V2000
   16.0130  -15.5380   23.0710 N   0  3  0  0  0  0  0  0  0  0  0  0
   17.2490  -14.7450   23.1640 C   0  0  0  0  0  0  0  0  0  0  0  0
   17.0420  -13.3530   22.6130 C   0  0  0  0  0  0  0  0  0  0  0  0
   16.0810  -12.6940   22.9920 O   0  0  0  0  0  0  0  0  0  0  0  0
   17.7490  -14.6700   24.6200 C   0  0  0  0  0  0  0  0  0  0  0  0
   19.1850  -14.1520   24.6720 C   0  0  0  0  0  0  0  0  0  0  0  0
   20.2010  -14.8200   23.9830 C   0  0  0  0  0  0  0  0  0  0  0  0
   19.4960  -13.0070   25.4070 C   0  0  0  0  0  0  0  0  0  0  0  0
   21.5170  -14.3440   24.0300 C   0  0  0  0  0  0  0  0  0  0  0  0
   20.8130  -12.5340   25.4540 C   0  0  0  0  0  0  0  0  0  0  0  0
   21.8330  -13.2020   24.7660 C   0  0  0  0  0  0  0  0  0  0  0  0
   17.9390  -12.9210   21.7700 N   0  0  0  0  0  0  0  0  0  0  0  0
   17.7310  -11.7510   20.9540 C   0  0  0  0  0  0  0  0  0  0  0  0
   16.3270  -11.5810   20.4510 C   0  0  0  0  0  0  0  0  0  0  0  0
   15.7970  -12.4350   19.7650 O   0  0  0  0  0  0  0  0  0  0  0  0
   18.7900  -11.7940   19.8340 C   0  0  0  0  0  0  0  0  0  0  0  0
   19.7500  -12.9320   20.2670 C   0  0  0  0  0  0  0  0  0  0  0  0
   18.8340  -13.8640   21.1050 C   0  0  0  0  0  0  0  0  0  0  0  0
   15.6440  -10.3760   20.8610 N   0  0  0  0  0  0  0  0  0  0  0  0
   14.3850  -10.1880   20.1890 C   0  0  0  0  0  0  0  0  0  0  0  0
   13.2690  -10.2630   21.2270 C   0  0  0  0  0  0  0  0  0  0  0  0
   13.1080   -9.2420   22.1710 C   0  0  0  0  0  0  0  0  0  0  0  0
   12.0820   -9.3200   23.1190 C   0  0  0  0  0  0  0  0  0  0  0  0
   11.8900   -8.2190   24.1560 C   0  0  0  0  0  0  0  0  0  0  0  0
   11.2300  -10.4200   23.1090 C   0  0  0  0  0  0  0  0  0  0  0  0
   11.3810  -11.4490   22.1700 C   0  0  0  0  0  0  0  0  0  0  0  0
   12.4080  -11.3620   21.2280 C   0  0  0  0  0  0  0  0  0  0  0  0
   17.7750  -15.6760   24.9850 H   0  0  0  0  0  0  0  0  0  0  0  0
   17.1440  -13.9380   25.1120 H   0  0  0  0  0  0  0  0  0  0  0  0
   19.9720  -15.6990   23.4170 H   0  0  0  0  0  0  0  0  0  0  0  0
   18.7250  -12.4880   25.9370 H   0  0  0  0  0  0  0  0  0  0  0  0
   22.2870  -14.8610   23.4970 H   0  0  0  0  0  0  0  0  0  0  0  0
   21.0420  -11.6550   26.0200 H   0  0  0  0  0  0  0  0  0  0  0  0
   22.8400  -12.8420   24.8040 H   0  0  0  0  0  0  0  0  0  0  0  0
   17.9940  -15.2370   22.5740 H   0  0  0  0  0  0  0  0  0  0  0  0
   16.0940  -16.3510   23.6480 H   0  0  0  0  0  0  0  0  0  0  0  0
   15.2390  -14.9860   23.3800 H   0  0  0  0  0  0  0  0  0  0  0  0
   15.8660  -15.8160   22.1220 H   0  0  0  0  0  0  0  0  0  0  0  0
   19.3360  -10.8740   19.8620 H   0  0  0  0  0  0  0  0  0  0  0  0
   18.3030  -12.1000   18.9320 H   0  0  0  0  0  0  0  0  0  0  0  0
   20.4870  -12.5150   20.9210 H   0  0  0  0  0  0  0  0  0  0  0  0
   20.0530  -13.4640   19.3890 H   0  0  0  0  0  0  0  0  0  0  0  0
   18.2530  -14.4570   20.4300 H   0  0  0  0  0  0  0  0  0  0  0  0
   19.4350  -14.3390   21.8530 H   0  0  0  0  0  0  0  0  0  0  0  0
   17.8570  -10.8730   21.5530 H   0  0  0  0  0  0  0  0  0  0  0  0
   16.2270   -9.6160   20.5730 H   0  0  0  0  0  0  0  0  0  0  0  0
   14.2550  -11.0200   19.5290 H   0  0  0  0  0  0  0  0  0  0  0  0
   14.3840   -9.1910   19.8000 H   0  0  0  0  0  0  0  0  0  0  0  0
   13.7700   -8.4010   22.1680 H   0  0  0  0  0  0  0  0  0  0  0  0
   12.0480   -8.6200   25.1350 H   0  0  0  0  0  0  0  0  0  0  0  0
   12.5930   -7.4320   23.9750 H   0  0  0  0  0  0  0  0  0  0  0  0
   10.8950   -7.8320   24.0850 H   0  0  0  0  0  0  0  0  0  0  0  0
   10.4440  -10.4810   23.8330 H   0  0  0  0  0  0  0  0  0  0  0  0
   10.7190  -12.2890   22.1750 H   0  0  0  0  0  0  0  0  0  0  0  0
   12.5360  -12.1400   20.5050 H   0  0  0  0  0  0  0  0  0  0  0  0
  1  2  1  0  0  0  0
  1 36  1  0  0  0  0
  1 37  1  0  0  0  0
  1 38  1  0  0  0  0
  2  3  1  0  0  0  0
  2  5  1  0  0  0  0
  2 35  1  0  0  0  0
  3  4  2  0  0  0  0
  3 12  1  0  0  0  0
  5  6  1  0  0  0  0
  5 28  1  0  0  0  0
  5 29  1  0  0  0  0
  6  7  4  0  0  0  0
  6  8  4  0  0  0  0
  7  9  4  0  0  0  0
  7 30  1  0  0  0  0
  8 10  4  0  0  0  0
  8 31  1  0  0  0  0
  9 11  4  0  0  0  0
  9 32  1  0  0  0  0
 10 11  4  0  0  0  0
 10 33  1  0  0  0  0
 11 34  1  0  0  0  0
 12 13  1  0  0  0  0
 12 18  1  0  0  0  0
 13 14  1  0  0  0  0
 13 16  1  0  0  0  0
 13 45  1  0  0  0  0
 14 15  2  0  0  0  0
 14 19  1  0  0  0  0
 16 17  1  0  0  0  0
 16 39  1  0  0  0  0
 16 40  1  0  0  0  0
 17 18  1  0  0  0  0
 17 41  1  0  0  0  0
 17 42  1  0  0  0  0
 18 43  1  0  0  0  0
 18 44  1  0  0  0  0
 19 20  1  0  0  0  0
 19 46  1  0  0  0  0
 20 21  1  0  0  0  0
 20 47  1  0  0  0  0
 20 48  1  0  0  0  0
 21 22  4  0  0  0  0
 21 27  4  0  0  0  0
 22 23  4  0  0  0  0
 22 49  1  0  0  0  0
 23 24  1  0  0  0  0
 23 25  4  0  0  0  0
 24 50  1  0  0  0  0
 24 51  1  0  0  0  0
 24 52  1  0  0  0  0
 25 26  4  0  0  0  0
 25 53  1  0  0  0  0
 26 27  4  0  0  0  0
 26 54  1  0  0  0  0
 27 55  1  0  0  0  0
M  END
$$$$
